<?xml version="1.0" encoding="UTF-8"?>

<!-- generated on 2022-01-01 17:36:46 by Eclipse SUMO netedit Version 1.10.0
<configuration xmlns:xsi="http://www.w3.org/2001/XMLSchema-instance" xsi:noNamespaceSchemaLocation="http://sumo.dlr.de/xsd/netconvertConfiguration.xsd">

    <input>
        <sumo-net-file value="D:\attachments%20(1)\Plan.net.xml"/>
    </input>

    <output>
        <output-file value="D:\attachments%20(1)\Plan.net.xml"/>
    </output>

    <processing>
        <geometry.min-radius.fix.railways value="false"/>
        <geometry.max-grade.fix value="false"/>
        <offset.disable-normalization value="true"/>
        <lefthand value="false"/>
    </processing>

    <junctions>
        <no-turnarounds value="true"/>
        <junctions.corner-detail value="5"/>
        <junctions.limit-turn-speed value="5.5"/>
        <rectangular-lane-cut value="false"/>
    </junctions>

    <pedestrian>
        <walkingareas value="false"/>
    </pedestrian>

    <report>
        <aggregate-warnings value="5"/>
    </report>

</configuration>
-->

<net version="1.9" junctionCornerDetail="5" limitTurnSpeed="5.50" xmlns:xsi="http://www.w3.org/2001/XMLSchema-instance" xsi:noNamespaceSchemaLocation="http://sumo.dlr.de/xsd/net_file.xsd">

    <location netOffset="0.00,0.00" convBoundary="-40.85,2.69,152.67,60.98" origBoundary="-10000000000.00,-10000000000.00,10000000000.00,10000000000.00" projParameter="!"/>

    <edge id=":J1_0" function="internal">
        <lane id=":J1_0_0" index="0" speed="7.86" length="7.51" shape="-12.84,48.71 -11.40,50.58 -9.95,51.91 -8.48,52.71 -6.99,52.98"/>
    </edge>
    <edge id=":J1_1" function="internal">
        <lane id=":J1_1_0" index="0" speed="13.89" length="8.12" shape="-15.12,52.98 -6.99,52.98"/>
        <lane id=":J1_1_1" index="1" speed="13.89" length="8.12" shape="-15.12,56.18 -6.99,56.18"/>
        <lane id=":J1_1_2" index="2" speed="13.89" length="8.12" shape="-15.12,59.38 -6.99,59.38"/>
    </edge>
    <edge id=":J2_0" function="internal">
        <lane id=":J2_0_0" index="0" speed="7.97" length="7.49" shape="112.43,52.98 113.89,52.72 115.36,51.93 116.83,50.61 118.31,48.76"/>
    </edge>
    <edge id=":J2_1" function="internal">
        <lane id=":J2_1_0" index="0" speed="13.89" length="8.07" shape="112.43,52.98 120.50,52.98"/>
        <lane id=":J2_1_1" index="1" speed="13.89" length="8.07" shape="112.43,56.18 120.50,56.18"/>
        <lane id=":J2_1_2" index="2" speed="13.89" length="8.07" shape="112.43,59.38 120.50,59.38"/>
    </edge>

    <edge id="e0" from="J0" to="J1" priority="-1">
        <lane id="e0_0" index="0" speed="13.89" length="25.56" shape="-40.68,52.98 -15.12,52.98"/>
        <lane id="e0_1" index="1" speed="13.89" length="25.56" shape="-40.68,56.18 -15.12,56.18"/>
        <lane id="e0_2" index="2" speed="13.89" length="25.56" shape="-40.68,59.38 -15.12,59.38"/>
    </edge>
    <edge id="e1" from="J1" to="J2" priority="-1">
        <lane id="e1_0" index="0" speed="13.89" length="119.42" shape="-6.99,52.98 112.43,52.98"/>
        <lane id="e1_1" index="1" speed="13.89" length="119.42" shape="-6.99,56.18 112.43,56.18"/>
        <lane id="e1_2" index="2" speed="13.89" length="119.42" shape="-6.99,59.38 112.43,59.38"/>
    </edge>
    <edge id="e2" from="J2" to="J4" priority="-1">
        <lane id="e2_0" index="0" speed="13.89" length="30.23" shape="120.50,52.98 150.73,52.98"/>
        <lane id="e2_1" index="1" speed="13.89" length="30.23" shape="120.50,56.18 150.73,56.18"/>
        <lane id="e2_2" index="2" speed="13.89" length="30.23" shape="120.50,59.38 150.73,59.38"/>
    </edge>
    <edge id="e3" from="J5" to="J1" priority="-1">
        <lane id="e3_0" index="0" speed="13.89" length="48.01" shape="-39.52,8.80 -12.84,48.71"/>
    </edge>
    <edge id="e4" from="J2" to="J6" priority="-1">
        <lane id="e4_0" index="0" speed="13.89" length="57.45" shape="118.31,48.76 151.36,1.77"/>
    </edge>

    <junction id="J0" type="dead_end" x="-40.68" y="60.98" incLanes="" intLanes="" shape="-40.68,60.98 -40.68,51.38"/>
    <junction id="J1" type="priority" x="-6.56" y="60.98" incLanes="e3_0 e0_0 e0_1 e0_2" intLanes=":J1_0_0 :J1_1_0 :J1_1_1 :J1_1_2" shape="-6.99,60.98 -6.99,51.38 -8.44,50.98 -9.19,50.49 -9.95,49.80 -10.72,48.91 -11.51,47.82 -14.17,49.60 -13.74,50.59 -13.81,50.94 -14.06,51.18 -14.50,51.33 -15.12,51.38 -15.12,60.98">
        <request index="0" response="1110" foes="1110" cont="0"/>
        <request index="1" response="0000" foes="0001" cont="0"/>
        <request index="2" response="0000" foes="0001" cont="0"/>
        <request index="3" response="0000" foes="0001" cont="0"/>
    </junction>
    <junction id="J2" type="priority" x="111.67" y="60.98" incLanes="e1_0 e1_1 e1_2" intLanes=":J2_0_0 :J2_1_0 :J2_1_1 :J2_1_2" shape="120.50,60.98 120.50,51.38 119.48,51.19 119.24,50.96 119.18,50.63 119.31,50.20 119.62,49.68 117.00,47.84 115.39,49.81 114.61,50.50 113.86,50.99 113.14,51.28 112.43,51.38 112.43,60.98">
        <request index="0" response="0000" foes="0000" cont="0"/>
        <request index="1" response="0000" foes="0000" cont="0"/>
        <request index="2" response="0000" foes="0000" cont="0"/>
        <request index="3" response="0000" foes="0000" cont="0"/>
    </junction>
    <junction id="J4" type="dead_end" x="150.73" y="60.98" incLanes="e2_0 e2_1 e2_2" intLanes="" shape="150.73,51.38 150.73,60.98"/>
    <junction id="J5" type="dead_end" x="-40.85" y="9.69" incLanes="" intLanes="" shape="-40.85,9.69 -38.19,7.91"/>
    <junction id="J6" type="dead_end" x="152.67" y="2.69" incLanes="e4_0" intLanes="" shape="150.05,0.85 152.67,2.69"/>

    <connection from="e0" to="e1" fromLane="0" toLane="0" via=":J1_1_0" dir="s" state="M"/>
    <connection from="e0" to="e1" fromLane="1" toLane="1" via=":J1_1_1" dir="s" state="M"/>
    <connection from="e0" to="e1" fromLane="2" toLane="2" via=":J1_1_2" dir="s" state="M"/>
    <connection from="e1" to="e4" fromLane="0" toLane="0" via=":J2_0_0" dir="r" state="M"/>
    <connection from="e1" to="e2" fromLane="0" toLane="0" via=":J2_1_0" dir="s" state="M"/>
    <connection from="e1" to="e2" fromLane="1" toLane="1" via=":J2_1_1" dir="s" state="M"/>
    <connection from="e1" to="e2" fromLane="2" toLane="2" via=":J2_1_2" dir="s" state="M"/>
    <connection from="e3" to="e1" fromLane="0" toLane="0" via=":J1_0_0" dir="r" state="m"/>

    <connection from=":J1_0" to="e1" fromLane="0" toLane="0" dir="r" state="M"/>
    <connection from=":J1_1" to="e1" fromLane="0" toLane="0" dir="s" state="M"/>
    <connection from=":J1_1" to="e1" fromLane="1" toLane="1" dir="s" state="M"/>
    <connection from=":J1_1" to="e1" fromLane="2" toLane="2" dir="s" state="M"/>
    <connection from=":J2_0" to="e4" fromLane="0" toLane="0" dir="r" state="M"/>
    <connection from=":J2_1" to="e2" fromLane="0" toLane="0" dir="s" state="M"/>
    <connection from=":J2_1" to="e2" fromLane="1" toLane="1" dir="s" state="M"/>
    <connection from=":J2_1" to="e2" fromLane="2" toLane="2" dir="s" state="M"/>

</net>
